
**** 05/04/25 21:41:13 ******* PSpice Lite (March 2016) ******* ID# 10813 ****

 Kolos2pop2


 ****     CIRCUIT DESCRIPTION


******************************************************************************




.LIB "EVAL_TOS.LIB"

Xzener 0 2 ZENER_II
Xtrans IN1 IN2 OUT1 OUT2 TX_II

D1 OUT1 1 D1N4148
D2 0 OUT2 D1N4148
D3 OUT2 1 D1N4148
D4 0 OUT1 D1N4148

C1 1 0 500u

R1 1 2 200
RL 0 2 1k
*Rb 0 IN2 1f

V1 IN1 IN2 SIN 0 120 60

.TRAN 0 50m 0 1u
.PROBE
.END

ERROR(ORPSIM-15142): Node IN1 is floating

ERROR(ORPSIM-15142): Node IN2 is floating

ERROR(ORPSIM-15143): Voltage source and/or inductor loop involving V1. You may break the loop by adding a series resistance
