
**** 04/27/25 18:31:54 ******* PSpice Lite (March 2016) ******* ID# 10813 ****

 Kolos 3


 ****     CIRCUIT DESCRIPTION


******************************************************************************




.LIB "EVAL_TOS.LIB"

Vdd VDD 0 5
Vin VIN 0 SIN 707.033m {ampl} 100k

I1 G 0 {iref}

M1 1 G VDD VDD PMOS0P5 W=15u L=0.3u
M2 2 G VDD VDD PMOS0P5 W=15u L=0.3u
M3 G G 1 VDD PMOS0P5 W=15u L=0.3u
M4 VOUT G 2 VDD PMOS0P5 W=15u L=0.3u
M5 VOUT VIN 0 0 NMOS0P5 W=30u L=0.3u

.DC Vin 705m 709m 0.1u
*.AC DEC 100 1f 1MEG
*.TRAN 0 50u 0 0.1u
.PARAM iref = 1u
.PARAM ampl = 1.1m
*.STEP PARAM ampl 1m 2m 0.1m
*.STEP PARAM iref 0.1u 100u 10u
*max dla iref = 100n/0.1u
*kv dla Vin=707.033m to -2.1815K
*3db cutoff - 992.13193k
*<2% THD dla 1.1m
*.FOUR 100k V[VOUT]
*.PROBE
.TF V[VOUT] Vin
.END

WARNING(ORPSIM-15676): LAMBDA for MOSFET model PMOS0P5 is unusually large and might cause non-convergence

**** 04/27/25 18:31:54 ******* PSpice Lite (March 2016) ******* ID# 10813 ****

 Kolos 3


 ****     MOSFET MODEL PARAMETERS


******************************************************************************




               PMOS0P5         NMOS0P5         
               PMOS            NMOS            
       LEVEL    1               1            
           L  100.000000E-06  100.000000E-06 
           W  100.000000E-06  100.000000E-06 
          LD   90.000000E-09   80.000000E-09 
         VTO    -.8              .7          
          KP   41.801210E-06  167.204900E-06 
       GAMMA     .45             .5          
         PHI     .75             .8          
      LAMBDA     .2              .1          
          IS   10.000000E-15   10.000000E-15 
          JS    5.000000E-09   10.000000E-09 
          PB     .9              .9          
        PBSW     .9              .9          
          CJ  930.000000E-06  570.000000E-06 
        CJSW  170.000000E-12  120.000000E-12 
        MJSW     .35             .4          
        CGSO  350.000000E-12  400.000000E-12 
        CGDO  350.000000E-12  400.000000E-12 
        CGBO  380.000000E-12  380.000000E-12 
         TOX    9.500000E-09    9.500000E-09 
          XJ    0               0            
          UO  115             460            
       UCRIT   10.000000E+03   10.000000E+03 
      DIOMOD    1               1            
         VFB    0               0            
        LETA    0               0            
        WETA    0               0            
          U0    0               0            
        TEMP    0               0            
         VDD    5               5            
       XPART    0               0            


WARNING(ORPSIM-15676): LAMBDA for MOSFET model PMOS0P5 is unusually large and might cause non-convergence

WARNING(ORPSIM-15676): LAMBDA for MOSFET model PMOS0P5 is unusually large and might cause non-convergence

**** 04/27/25 18:31:54 ******* PSpice Lite (March 2016) ******* ID# 10813 ****

 Kolos 3


 ****     SMALL SIGNAL BIAS SOLUTION       TEMPERATURE =   27.000 DEG C


******************************************************************************



 NODE   VOLTAGE     NODE   VOLTAGE     NODE   VOLTAGE     NODE   VOLTAGE


(    1)    4.9921  (    2)    4.9910  (    G)    4.1719  (  VDD)    5.0000      

(  VIN)     .7070  ( VOUT)    2.4993  




    VOLTAGE SOURCE CURRENTS
    NAME         CURRENT

    Vdd         -2.108E-06
    Vin          0.000E+00

    TOTAL POWER DISSIPATION   1.05E-05  WATTS






 ****     SMALL-SIGNAL CHARACTERISTICS


      V(VOUT)/Vin = -2.182E+03

      INPUT RESISTANCE AT Vin =  1.000E+20

      OUTPUT RESISTANCE AT V(VOUT) =  6.927E+06


          JOB CONCLUDED

**** 04/27/25 18:31:54 ******* PSpice Lite (March 2016) ******* ID# 10813 ****

 Kolos 3


 ****     JOB STATISTICS SUMMARY


******************************************************************************



  Total job time (using Solver 1)   =         .69
