
**** 03/24/25 15:49:53 ******* PSpice Lite (March 2016) ******* ID# 10813 ****

 Zesp 1


 ****     CIRCUIT DESCRIPTION


******************************************************************************




R1 1 0 5
R2 4 0 5

*C1 5 2 0.00159

L1 2 3 0.159

V1 2 1 AC 20
V2 4 5 AC 10 -90
V3 4 3 AC 10 90

*RTH 5 2 1f

ITH 5 2 1f

I3 0 4 AC 5

.AC LIN 1 10 10
.PRINT AC V(2,5)
*VM(C1)
.TF V(2,5) ITH
.END

**** 03/24/25 15:49:53 ******* PSpice Lite (March 2016) ******* ID# 10813 ****

 Zesp 1


 ****     SMALL SIGNAL BIAS SOLUTION       TEMPERATURE =   27.000 DEG C


******************************************************************************



 NODE   VOLTAGE     NODE   VOLTAGE     NODE   VOLTAGE     NODE   VOLTAGE


(    1)    0.0000  (    2)    0.0000  (    3)    0.0000  (    4)    0.0000      

(    5)    0.0000  




    VOLTAGE SOURCE CURRENTS
    NAME         CURRENT

    V1           0.000E+00
    V2           1.000E-15
    V3          -1.000E-15

    TOTAL POWER DISSIPATION   0.00E+00  WATTS






 ****     SMALL-SIGNAL CHARACTERISTICS


      V(2,5)/ITH =  0.000E+00

      INPUT RESISTANCE AT ITH =  0.000E+00

      OUTPUT RESISTANCE AT V(2,5) =  0.000E+00

**** 03/24/25 15:49:53 ******* PSpice Lite (March 2016) ******* ID# 10813 ****

 Zesp 1


 ****     AC ANALYSIS                      TEMPERATURE =   27.000 DEG C


******************************************************************************



  FREQ        V(2,5)      


   1.000E+01   1.904E+01


          JOB CONCLUDED

**** 03/24/25 15:49:53 ******* PSpice Lite (March 2016) ******* ID# 10813 ****

 Zesp 1


 ****     JOB STATISTICS SUMMARY


******************************************************************************



  Total job time (using Solver 1)   =         .02
